# Packages
 &PACKAGES
 useOBCS=.TRUE.,
 usePtracers=.TRUE.,
 useRBCS=.TRUE.,
 useMNC=.TRUE.,
#useLayers=.TRUE.,
 &
